 INFO
nunit      1    1    1
unit   tr_asym
celltype   primcell
shape   parapipedal
 END_INFO
 DIM-GROUP
           3           5
 PRIMVEC
   -2.7152989180    0.0000000000    2.7152989180
    0.0000000000    2.7152989180    2.7152989180
   -2.7152989180    2.7152989180    0.0000000000
 CONVVEC
    5.4305978360    0.0000000000    0.0000000000
    0.0000000000    5.4305978360    0.0000000000
    0.0000000000    0.0000000000    5.4305978360
 PRIMCOORD
           2           1
 14      0.0000000000     0.0000000000     0.0000000000
 14      1.3576494590     1.3576494590     1.3576494590
 CONVCOORD
           2           4
 14      2.7152989180     2.7152989180     0.0000000000
 14      0.0000000000     0.0000000000     0.0000000000
 14      2.7152989180     0.0000000000     2.7152989180
 14      0.0000000000     2.7152989180     2.7152989180
 14      4.0729483770     4.0729483770     1.3576494590
 14      1.3576494590     1.3576494590     1.3576494590
 14      4.0729483770     1.3576494590     4.0729483770
 14      1.3576494590     4.0729483770     4.0729483770
 RECIP-PRIMVEC
   -0.1841417888   -0.1841417888    0.1841417888

    0.1841417888    0.1841417888    0.1841417888

   -0.1841417888    0.1841417888   -0.1841417888

 RECIP-CONVVEC
    0.1841417888    0.0000000000    0.0000000000

    0.0000000000    0.1841417888    0.0000000000

    0.0000000000    0.0000000000    0.1841417888

 WIGNER-SEITZ-PRIMCELL
           4
  0.1357649E+01 -0.1357649E+01 -0.1357649E+01   0.7071068E+00 -0.0000000E+00 -0.7071068E+00
  0.1774628E-15  0.0000000E+00 -0.2715299E+01   0.7071068E+00 -0.0000000E+00 -0.7071068E+00
  0.1357649E+01  0.1357649E+01 -0.1357649E+01   0.7071068E+00 -0.0000000E+00 -0.7071068E+00
  0.2715299E+01 -0.0000000E+00 -0.1774628E-15   0.7071068E+00 -0.0000000E+00 -0.7071068E+00
           4
  0.0000000E+00  0.2715299E+01  0.1774628E-15  -0.1277736E-15  0.7071068E+00 -0.7071068E+00
  0.1357649E+01  0.1357649E+01 -0.1357649E+01  -0.1277736E-15  0.7071068E+00 -0.7071068E+00
  0.0000000E+00  0.0000000E+00 -0.2715299E+01  -0.1277736E-15  0.7071068E+00 -0.7071068E+00
 -0.1357649E+01  0.1357649E+01 -0.1357649E+01  -0.1277736E-15  0.7071068E+00 -0.7071068E+00
           4
 -0.1357649E+01 -0.1357649E+01 -0.1357649E+01  -0.1277736E-15 -0.7071068E+00 -0.7071068E+00
  0.0000000E+00  0.0000000E+00 -0.2715299E+01  -0.1277736E-15 -0.7071068E+00 -0.7071068E+00
  0.1357649E+01 -0.1357649E+01 -0.1357649E+01  -0.1277736E-15 -0.7071068E+00 -0.7071068E+00
 -0.0000000E+00 -0.2715299E+01  0.1774628E-15  -0.1277736E-15 -0.7071068E+00 -0.7071068E+00
           4
 -0.1357649E+01  0.1357649E+01 -0.1357649E+01  -0.7071068E+00 -0.0000000E+00 -0.7071068E+00
  0.0000000E+00  0.0000000E+00 -0.2715299E+01  -0.7071068E+00 -0.0000000E+00 -0.7071068E+00
 -0.1357649E+01 -0.1357649E+01 -0.1357649E+01  -0.7071068E+00 -0.0000000E+00 -0.7071068E+00
 -0.2715299E+01  0.0000000E+00 -0.1774628E-15  -0.7071068E+00 -0.0000000E+00 -0.7071068E+00
           4
  0.2715299E+01 -0.0000000E+00 -0.0000000E+00   0.7071068E+00  0.7071068E+00 -0.1703648E-15
  0.1357649E+01  0.1357649E+01 -0.1357649E+01   0.7071068E+00  0.7071068E+00 -0.1703648E-15
  0.1774628E-15  0.2715299E+01  0.0000000E+00   0.7071068E+00  0.7071068E+00 -0.1703648E-15
  0.1357649E+01  0.1357649E+01  0.1357649E+01   0.7071068E+00  0.7071068E+00 -0.1703648E-15
           4
  0.1357649E+01 -0.1357649E+01  0.1357649E+01   0.7071068E+00 -0.7071068E+00 -0.1703648E-15
  0.1774628E-15 -0.2715299E+01 -0.0000000E+00   0.7071068E+00 -0.7071068E+00 -0.1703648E-15
  0.1357649E+01 -0.1357649E+01 -0.1357649E+01   0.7071068E+00 -0.7071068E+00 -0.1703648E-15
  0.2715299E+01 -0.0000000E+00 -0.0000000E+00   0.7071068E+00 -0.7071068E+00 -0.1703648E-15
           4
  0.3549256E-15 -0.0000000E+00  0.2715299E+01   0.7071068E+00  0.0000000E+00  0.7071068E+00
  0.1357649E+01 -0.1357649E+01  0.1357649E+01   0.7071068E+00  0.0000000E+00  0.7071068E+00
  0.2715299E+01 -0.0000000E+00 -0.0000000E+00   0.7071068E+00  0.0000000E+00  0.7071068E+00
  0.1357649E+01  0.1357649E+01  0.1357649E+01   0.7071068E+00  0.0000000E+00  0.7071068E+00
           4
  0.3549256E-15  0.2715299E+01  0.3549256E-15  -0.7071068E+00  0.7071068E+00  0.3407296E-15
 -0.1357649E+01  0.1357649E+01 -0.1357649E+01  -0.7071068E+00  0.7071068E+00  0.3407296E-15
 -0.2715299E+01  0.0000000E+00  0.3549256E-15  -0.7071068E+00  0.7071068E+00  0.3407296E-15
 -0.1357649E+01  0.1357649E+01  0.1357649E+01  -0.7071068E+00  0.7071068E+00  0.3407296E-15
           4
  0.3549256E-15  0.0000000E+00  0.2715299E+01  -0.1277736E-15  0.7071068E+00  0.7071068E+00
  0.1357649E+01  0.1357649E+01  0.1357649E+01  -0.1277736E-15  0.7071068E+00  0.7071068E+00
  0.3549256E-15  0.2715299E+01  0.3549256E-15  -0.1277736E-15  0.7071068E+00  0.7071068E+00
 -0.1357649E+01  0.1357649E+01  0.1357649E+01  -0.1277736E-15  0.7071068E+00  0.7071068E+00
           4
 -0.1357649E+01 -0.1357649E+01  0.1357649E+01  -0.7071068E+00 -0.7071068E+00  0.3407296E-15
 -0.2715299E+01 -0.0000000E+00  0.3549256E-15  -0.7071068E+00 -0.7071068E+00  0.3407296E-15
 -0.1357649E+01 -0.1357649E+01 -0.1357649E+01  -0.7071068E+00 -0.7071068E+00  0.3407296E-15
  0.3549256E-15 -0.2715299E+01  0.3549256E-15  -0.7071068E+00 -0.7071068E+00  0.3407296E-15
           4
 -0.1357649E+01 -0.1357649E+01  0.1357649E+01  -0.1277736E-15 -0.7071068E+00  0.7071068E+00
  0.3549256E-15 -0.2715299E+01  0.3549256E-15  -0.1277736E-15 -0.7071068E+00  0.7071068E+00
  0.1357649E+01 -0.1357649E+01  0.1357649E+01  -0.1277736E-15 -0.7071068E+00  0.7071068E+00
  0.3549256E-15 -0.0000000E+00  0.2715299E+01  -0.1277736E-15 -0.7071068E+00  0.7071068E+00
           4
  0.3549256E-15 -0.0000000E+00  0.2715299E+01  -0.7071068E+00  0.0000000E+00  0.7071068E+00
 -0.1357649E+01  0.1357649E+01  0.1357649E+01  -0.7071068E+00  0.0000000E+00  0.7071068E+00
 -0.2715299E+01 -0.0000000E+00  0.3549256E-15  -0.7071068E+00  0.0000000E+00  0.7071068E+00
 -0.1357649E+01 -0.1357649E+01  0.1357649E+01  -0.7071068E+00  0.0000000E+00  0.7071068E+00
 WIGNER-SEITZ-PRIMCELL_END
 WIGNER-SEITZ-CONVCELL
           4
 -0.2715299E+01 -0.2715299E+01  0.2715299E+01  -0.1000000E+01  0.8177538E-16 -0.8177538E-16
 -0.2715299E+01  0.2715299E+01  0.2715299E+01  -0.1000000E+01  0.8177538E-16 -0.8177538E-16
 -0.2715299E+01  0.2715299E+01 -0.2715299E+01  -0.1000000E+01  0.8177538E-16 -0.8177538E-16
 -0.2715299E+01 -0.2715299E+01 -0.2715299E+01  -0.1000000E+01  0.8177538E-16 -0.8177538E-16
           4
 -0.2715299E+01 -0.2715299E+01  0.2715299E+01  -0.0000000E+00 -0.1000000E+01  0.6023306E-16
 -0.2715299E+01 -0.2715299E+01 -0.2715299E+01  -0.0000000E+00 -0.1000000E+01  0.6023306E-16
  0.2715299E+01 -0.2715299E+01 -0.2715299E+01  -0.0000000E+00 -0.1000000E+01  0.6023306E-16
  0.2715299E+01 -0.2715299E+01  0.2715299E+01  -0.0000000E+00 -0.1000000E+01  0.6023306E-16
           4
 -0.2715299E+01  0.2715299E+01 -0.2715299E+01  -0.6023306E-16  0.7957843E-16 -0.1000000E+01
  0.2715299E+01  0.2715299E+01 -0.2715299E+01  -0.6023306E-16  0.7957843E-16 -0.1000000E+01
  0.2715299E+01 -0.2715299E+01 -0.2715299E+01  -0.6023306E-16  0.7957843E-16 -0.1000000E+01
 -0.2715299E+01 -0.2715299E+01 -0.2715299E+01  -0.6023306E-16  0.7957843E-16 -0.1000000E+01
           4
 -0.2715299E+01 -0.2715299E+01  0.2715299E+01  -0.6023306E-16  0.9892380E-16  0.1000000E+01
  0.2715299E+01 -0.2715299E+01  0.2715299E+01  -0.6023306E-16  0.9892380E-16  0.1000000E+01
  0.2715299E+01  0.2715299E+01  0.2715299E+01  -0.6023306E-16  0.9892380E-16  0.1000000E+01
 -0.2715299E+01  0.2715299E+01  0.2715299E+01  -0.6023306E-16  0.9892380E-16  0.1000000E+01
           4
  0.2715299E+01  0.2715299E+01  0.2715299E+01   0.0000000E+00  0.1000000E+01  0.0000000E+00
  0.2715299E+01  0.2715299E+01 -0.2715299E+01   0.0000000E+00  0.1000000E+01  0.0000000E+00
 -0.2715299E+01  0.2715299E+01 -0.2715299E+01   0.0000000E+00  0.1000000E+01  0.0000000E+00
 -0.2715299E+01  0.2715299E+01  0.2715299E+01   0.0000000E+00  0.1000000E+01  0.0000000E+00
           4
  0.2715299E+01 -0.2715299E+01 -0.2715299E+01   0.1000000E+01  0.8177538E-16 -0.8177538E-16
  0.2715299E+01  0.2715299E+01 -0.2715299E+01   0.1000000E+01  0.8177538E-16 -0.8177538E-16
  0.2715299E+01  0.2715299E+01  0.2715299E+01   0.1000000E+01  0.8177538E-16 -0.8177538E-16
  0.2715299E+01 -0.2715299E+01  0.2715299E+01   0.1000000E+01  0.8177538E-16 -0.8177538E-16
 WIGNER-SEITZ-CONVCELL_END
 BRILLOUIN-ZONE-PRIMCELL
           6
  0.0000000E+00 -0.1841418E+00 -0.9207089E-01   0.5773503E+00 -0.5773503E+00 -0.5773503E+00
 -0.0000000E+00 -0.9207089E-01 -0.1841418E+00   0.5773503E+00 -0.5773503E+00 -0.5773503E+00
  0.9207089E-01 -0.1736414E-16 -0.1841418E+00   0.5773503E+00 -0.5773503E+00 -0.5773503E+00
  0.1841418E+00  0.1736414E-16 -0.9207089E-01   0.5773503E+00 -0.5773503E+00 -0.5773503E+00
  0.1841418E+00 -0.9207089E-01 -0.1736414E-16   0.5773503E+00 -0.5773503E+00 -0.5773503E+00
  0.9207089E-01 -0.1841418E+00  0.1736414E-16   0.5773503E+00 -0.5773503E+00 -0.5773503E+00
           4
 -0.9207089E-01  0.1736414E-16 -0.1841418E+00   0.0000000E+00  0.0000000E+00 -0.1000000E+01
 -0.0000000E+00  0.9207089E-01 -0.1841418E+00   0.0000000E+00  0.0000000E+00 -0.1000000E+01
  0.9207089E-01 -0.1736414E-16 -0.1841418E+00   0.0000000E+00  0.0000000E+00 -0.1000000E+01
 -0.0000000E+00 -0.9207089E-01 -0.1841418E+00   0.0000000E+00  0.0000000E+00 -0.1000000E+01
           6
  0.1841418E+00  0.1736414E-16 -0.9207089E-01   0.5773503E+00  0.5773503E+00 -0.5773503E+00
  0.9207089E-01 -0.1736414E-16 -0.1841418E+00   0.5773503E+00  0.5773503E+00 -0.5773503E+00
 -0.0000000E+00  0.9207089E-01 -0.1841418E+00   0.5773503E+00  0.5773503E+00 -0.5773503E+00
  0.0000000E+00  0.1841418E+00 -0.9207089E-01   0.5773503E+00  0.5773503E+00 -0.5773503E+00
  0.9207089E-01  0.1841418E+00 -0.1736414E-16   0.5773503E+00  0.5773503E+00 -0.5773503E+00
  0.1841418E+00  0.9207089E-01  0.1736414E-16   0.5773503E+00  0.5773503E+00 -0.5773503E+00
           6
 -0.9207089E-01 -0.1841418E+00 -0.1736414E-16  -0.5773503E+00 -0.5773503E+00 -0.5773503E+00
 -0.1841418E+00 -0.9207089E-01  0.1736414E-16  -0.5773503E+00 -0.5773503E+00 -0.5773503E+00
 -0.1841418E+00 -0.1736414E-16 -0.9207089E-01  -0.5773503E+00 -0.5773503E+00 -0.5773503E+00
 -0.9207089E-01  0.1736414E-16 -0.1841418E+00  -0.5773503E+00 -0.5773503E+00 -0.5773503E+00
 -0.0000000E+00 -0.9207089E-01 -0.1841418E+00  -0.5773503E+00 -0.5773503E+00 -0.5773503E+00
  0.0000000E+00 -0.1841418E+00 -0.9207089E-01  -0.5773503E+00 -0.5773503E+00 -0.5773503E+00
           4
  0.1841418E+00 -0.9207089E-01 -0.1736414E-16   0.1000000E+01 -0.0000000E+00 -0.0000000E+00
  0.1841418E+00  0.1736414E-16 -0.9207089E-01   0.1000000E+01 -0.0000000E+00 -0.0000000E+00
  0.1841418E+00  0.9207089E-01  0.1736414E-16   0.1000000E+01 -0.0000000E+00 -0.0000000E+00
  0.1841418E+00 -0.1736414E-16  0.9207089E-01   0.1000000E+01 -0.0000000E+00 -0.0000000E+00
           6
  0.0000000E+00 -0.1841418E+00  0.9207089E-01   0.5773503E+00 -0.5773503E+00  0.5773503E+00
  0.9207089E-01 -0.1841418E+00  0.1736414E-16   0.5773503E+00 -0.5773503E+00  0.5773503E+00
  0.1841418E+00 -0.9207089E-01 -0.1736414E-16   0.5773503E+00 -0.5773503E+00  0.5773503E+00
  0.1841418E+00 -0.1736414E-16  0.9207089E-01   0.5773503E+00 -0.5773503E+00  0.5773503E+00
  0.9207089E-01  0.1736414E-16  0.1841418E+00   0.5773503E+00 -0.5773503E+00  0.5773503E+00
 -0.0000000E+00 -0.9207089E-01  0.1841418E+00   0.5773503E+00 -0.5773503E+00  0.5773503E+00
           4
  0.0000000E+00 -0.1841418E+00  0.9207089E-01   0.0000000E+00 -0.1000000E+01  0.2046376E-15
 -0.9207089E-01 -0.1841418E+00 -0.1736414E-16   0.0000000E+00 -0.1000000E+01  0.2046376E-15
  0.0000000E+00 -0.1841418E+00 -0.9207089E-01   0.0000000E+00 -0.1000000E+01  0.2046376E-15
  0.9207089E-01 -0.1841418E+00  0.1736414E-16   0.0000000E+00 -0.1000000E+01  0.2046376E-15
           6
 -0.1841418E+00  0.9207089E-01 -0.1736414E-16  -0.5773503E+00  0.5773503E+00 -0.5773503E+00
 -0.9207089E-01  0.1841418E+00  0.1736414E-16  -0.5773503E+00  0.5773503E+00 -0.5773503E+00
  0.0000000E+00  0.1841418E+00 -0.9207089E-01  -0.5773503E+00  0.5773503E+00 -0.5773503E+00
 -0.0000000E+00  0.9207089E-01 -0.1841418E+00  -0.5773503E+00  0.5773503E+00 -0.5773503E+00
 -0.9207089E-01  0.1736414E-16 -0.1841418E+00  -0.5773503E+00  0.5773503E+00 -0.5773503E+00
 -0.1841418E+00 -0.1736414E-16 -0.9207089E-01  -0.5773503E+00  0.5773503E+00 -0.5773503E+00
           6
  0.1841418E+00 -0.1736414E-16  0.9207089E-01   0.5773503E+00  0.5773503E+00  0.5773503E+00
  0.1841418E+00  0.9207089E-01  0.1736414E-16   0.5773503E+00  0.5773503E+00  0.5773503E+00
  0.9207089E-01  0.1841418E+00 -0.1736414E-16   0.5773503E+00  0.5773503E+00  0.5773503E+00
  0.0000000E+00  0.1841418E+00  0.9207089E-01   0.5773503E+00  0.5773503E+00  0.5773503E+00
 -0.0000000E+00  0.9207089E-01  0.1841418E+00   0.5773503E+00  0.5773503E+00  0.5773503E+00
  0.9207089E-01  0.1736414E-16  0.1841418E+00   0.5773503E+00  0.5773503E+00  0.5773503E+00
           4
  0.9207089E-01  0.1841418E+00 -0.1736414E-16  -0.0000000E+00  0.1000000E+01  0.2046376E-15
  0.0000000E+00  0.1841418E+00 -0.9207089E-01  -0.0000000E+00  0.1000000E+01  0.2046376E-15
 -0.9207089E-01  0.1841418E+00  0.1736414E-16  -0.0000000E+00  0.1000000E+01  0.2046376E-15
  0.0000000E+00  0.1841418E+00  0.9207089E-01  -0.0000000E+00  0.1000000E+01  0.2046376E-15
           6
 -0.0000000E+00 -0.9207089E-01  0.1841418E+00  -0.5773503E+00 -0.5773503E+00  0.5773503E+00
 -0.9207089E-01 -0.1736414E-16  0.1841418E+00  -0.5773503E+00 -0.5773503E+00  0.5773503E+00
 -0.1841418E+00  0.1736414E-16  0.9207089E-01  -0.5773503E+00 -0.5773503E+00  0.5773503E+00
 -0.1841418E+00 -0.9207089E-01  0.1736414E-16  -0.5773503E+00 -0.5773503E+00  0.5773503E+00
 -0.9207089E-01 -0.1841418E+00 -0.1736414E-16  -0.5773503E+00 -0.5773503E+00  0.5773503E+00
  0.0000000E+00 -0.1841418E+00  0.9207089E-01  -0.5773503E+00 -0.5773503E+00  0.5773503E+00
           4
 -0.1841418E+00  0.1736414E-16  0.9207089E-01  -0.1000000E+01  0.0000000E+00  0.0000000E+00
 -0.1841418E+00  0.9207089E-01 -0.1736414E-16  -0.1000000E+01  0.0000000E+00  0.0000000E+00
 -0.1841418E+00 -0.1736414E-16 -0.9207089E-01  -0.1000000E+01  0.0000000E+00  0.0000000E+00
 -0.1841418E+00 -0.9207089E-01  0.1736414E-16  -0.1000000E+01  0.0000000E+00  0.0000000E+00
           4
 -0.0000000E+00 -0.9207089E-01  0.1841418E+00  -0.0000000E+00 -0.0000000E+00  0.1000000E+01
  0.9207089E-01  0.1736414E-16  0.1841418E+00  -0.0000000E+00 -0.0000000E+00  0.1000000E+01
 -0.0000000E+00  0.9207089E-01  0.1841418E+00  -0.0000000E+00 -0.0000000E+00  0.1000000E+01
 -0.9207089E-01 -0.1736414E-16  0.1841418E+00  -0.0000000E+00 -0.0000000E+00  0.1000000E+01
           6
 -0.9207089E-01 -0.1736414E-16  0.1841418E+00  -0.5773503E+00  0.5773503E+00  0.5773503E+00
 -0.0000000E+00  0.9207089E-01  0.1841418E+00  -0.5773503E+00  0.5773503E+00  0.5773503E+00
  0.0000000E+00  0.1841418E+00  0.9207089E-01  -0.5773503E+00  0.5773503E+00  0.5773503E+00
 -0.9207089E-01  0.1841418E+00  0.1736414E-16  -0.5773503E+00  0.5773503E+00  0.5773503E+00
 -0.1841418E+00  0.9207089E-01 -0.1736414E-16  -0.5773503E+00  0.5773503E+00  0.5773503E+00
 -0.1841418E+00  0.1736414E-16  0.9207089E-01  -0.5773503E+00  0.5773503E+00  0.5773503E+00
 BRILLOUIN-ZONE-PRIMCELL_END
 BRILLOUIN-ZONE-CONVCELL
           4
 -0.9207089E-01 -0.9207089E-01  0.9207089E-01  -0.1000000E+01  0.0000000E+00  0.0000000E+00
 -0.9207089E-01  0.9207089E-01  0.9207089E-01  -0.1000000E+01  0.0000000E+00  0.0000000E+00
 -0.9207089E-01  0.9207089E-01 -0.9207089E-01  -0.1000000E+01  0.0000000E+00  0.0000000E+00
 -0.9207089E-01 -0.9207089E-01 -0.9207089E-01  -0.1000000E+01  0.0000000E+00  0.0000000E+00
           4
 -0.9207089E-01 -0.9207089E-01 -0.9207089E-01  -0.0000000E+00 -0.1000000E+01 -0.0000000E+00
  0.9207089E-01 -0.9207089E-01 -0.9207089E-01  -0.0000000E+00 -0.1000000E+01 -0.0000000E+00
  0.9207089E-01 -0.9207089E-01  0.9207089E-01  -0.0000000E+00 -0.1000000E+01 -0.0000000E+00
 -0.9207089E-01 -0.9207089E-01  0.9207089E-01  -0.0000000E+00 -0.1000000E+01 -0.0000000E+00
           4
 -0.9207089E-01  0.9207089E-01 -0.9207089E-01   0.0000000E+00  0.0000000E+00 -0.1000000E+01
  0.9207089E-01  0.9207089E-01 -0.9207089E-01   0.0000000E+00  0.0000000E+00 -0.1000000E+01
  0.9207089E-01 -0.9207089E-01 -0.9207089E-01   0.0000000E+00  0.0000000E+00 -0.1000000E+01
 -0.9207089E-01 -0.9207089E-01 -0.9207089E-01   0.0000000E+00  0.0000000E+00 -0.1000000E+01
           4
 -0.9207089E-01 -0.9207089E-01  0.9207089E-01  -0.0000000E+00 -0.0000000E+00  0.1000000E+01
  0.9207089E-01 -0.9207089E-01  0.9207089E-01  -0.0000000E+00 -0.0000000E+00  0.1000000E+01
  0.9207089E-01  0.9207089E-01  0.9207089E-01  -0.0000000E+00 -0.0000000E+00  0.1000000E+01
 -0.9207089E-01  0.9207089E-01  0.9207089E-01  -0.0000000E+00 -0.0000000E+00  0.1000000E+01
           4
 -0.9207089E-01  0.9207089E-01  0.9207089E-01   0.0000000E+00  0.1000000E+01  0.0000000E+00
  0.9207089E-01  0.9207089E-01  0.9207089E-01   0.0000000E+00  0.1000000E+01  0.0000000E+00
  0.9207089E-01  0.9207089E-01 -0.9207089E-01   0.0000000E+00  0.1000000E+01  0.0000000E+00
 -0.9207089E-01  0.9207089E-01 -0.9207089E-01   0.0000000E+00  0.1000000E+01  0.0000000E+00
           4
  0.9207089E-01 -0.9207089E-01 -0.9207089E-01   0.1000000E+01 -0.0000000E+00 -0.0000000E+00
  0.9207089E-01  0.9207089E-01 -0.9207089E-01   0.1000000E+01 -0.0000000E+00 -0.0000000E+00
  0.9207089E-01  0.9207089E-01  0.9207089E-01   0.1000000E+01 -0.0000000E+00 -0.0000000E+00
  0.9207089E-01 -0.9207089E-01  0.9207089E-01   0.1000000E+01 -0.0000000E+00 -0.0000000E+00
 BRILLOUIN-ZONE-CONVCELL_END
 ATOMS
   14    0.0000000000    0.0000000000    0.0000000000
   14    1.3576494590    1.3576494590    1.3576494590
 FRAMES
1      0.0000000000    0.0000000000    0.0000000000     -2.7152989180    0.0000000000    2.7152989180
1      0.0000000000    0.0000000000    0.0000000000      0.0000000000    2.7152989180    2.7152989180
1      0.0000000000    0.0000000000    0.0000000000     -2.7152989180    2.7152989180    0.0000000000
1     -2.7152989180    2.7152989180    0.0000000000     -5.4305978360    2.7152989180    2.7152989180
1     -2.7152989180    2.7152989180    0.0000000000     -2.7152989180    5.4305978360    2.7152989180
1      0.0000000000    2.7152989180    2.7152989180     -2.7152989180    2.7152989180    5.4305978360
1      0.0000000000    2.7152989180    2.7152989180     -2.7152989180    5.4305978360    2.7152989180
1     -2.7152989180    5.4305978360    2.7152989180     -5.4305978360    5.4305978360    5.4305978360
1     -2.7152989180    0.0000000000    2.7152989180     -2.7152989180    2.7152989180    5.4305978360
1     -2.7152989180    0.0000000000    2.7152989180     -5.4305978360    2.7152989180    2.7152989180
1     -5.4305978360    2.7152989180    2.7152989180     -5.4305978360    5.4305978360    5.4305978360
1     -2.7152989180    2.7152989180    5.4305978360     -5.4305978360    5.4305978360    5.4305978360
